[root]
type=Root
children=system
eventq_index=0
full_system=false
sim_quantum=0
time_sync_enable=false
time_sync_period=100000000000
time_sync_spin_threshold=100000000

[system]
type=System
children=clk_domain cpu0 cpu1 cpu2 cpu3 cpu4 cpu_clk_domain cpu_voltage_domain dvfs_handler mem_ctrls ruby sys_port_proxy voltage_domain
boot_osflags=a
cache_line_size=64
clk_domain=system.clk_domain
eventq_index=0
init_param=0
kernel=
kernel_addr_check=true
load_addr_mask=1099511627775
load_offset=0
mem_mode=timing
mem_ranges=0:536870911
memories=system.mem_ctrls
num_work_ids=16
readfile=
symbolfile=
work_begin_ckpt_count=0
work_begin_cpu_id_exit=-1
work_begin_exit_count=0
work_cpus_ckpt_count=0
work_end_ckpt_count=0
work_end_exit_count=0
work_item_id=-1
system_port=system.sys_port_proxy.slave[0]

[system.clk_domain]
type=SrcClockDomain
clock=1000
domain_id=-1
eventq_index=0
init_perf_level=0
voltage_domain=system.voltage_domain

[system.cpu0]
type=TimingSimpleCPU
children=apic_clk_domain dtb interrupts isa itb tracer workload
branchPred=Null
checker=Null
clk_domain=system.cpu_clk_domain
cpu_id=0
do_checkpoint_insts=true
do_quiesce=true
do_statistics_insts=true
dtb=system.cpu0.dtb
eventq_index=0
function_trace=false
function_trace_start=0
interrupts=system.cpu0.interrupts
isa=system.cpu0.isa
itb=system.cpu0.itb
max_insts_all_threads=0
max_insts_any_thread=0
max_loads_all_threads=0
max_loads_any_thread=0
numThreads=1
profile=0
progress_interval=0
simpoint_start_insts=
socket_id=0
switched_out=false
system=system
tracer=system.cpu0.tracer
workload=system.cpu0.workload
dcache_port=system.ruby.l0_cntrl0.sequencer.slave[1]
icache_port=system.ruby.l0_cntrl0.sequencer.slave[0]

[system.cpu0.apic_clk_domain]
type=DerivedClockDomain
clk_divider=16
clk_domain=system.cpu_clk_domain
eventq_index=0

[system.cpu0.dtb]
type=X86TLB
children=walker
eventq_index=0
size=64
walker=system.cpu0.dtb.walker

[system.cpu0.dtb.walker]
type=X86PagetableWalker
clk_domain=system.cpu_clk_domain
eventq_index=0
num_squash_per_cycle=4
system=system
port=system.ruby.l0_cntrl0.sequencer.slave[4]

[system.cpu0.interrupts]
type=X86LocalApic
clk_domain=system.cpu0.apic_clk_domain
eventq_index=0
int_latency=1000
pio_addr=2305843009213693952
pio_latency=100000
system=system
int_master=system.ruby.l0_cntrl0.sequencer.slave[2]
int_slave=system.ruby.l0_cntrl0.sequencer.master[1]
pio=system.ruby.l0_cntrl0.sequencer.master[0]

[system.cpu0.isa]
type=X86ISA
eventq_index=0

[system.cpu0.itb]
type=X86TLB
children=walker
eventq_index=0
size=64
walker=system.cpu0.itb.walker

[system.cpu0.itb.walker]
type=X86PagetableWalker
clk_domain=system.cpu_clk_domain
eventq_index=0
num_squash_per_cycle=4
system=system
port=system.ruby.l0_cntrl0.sequencer.slave[3]

[system.cpu0.tracer]
type=ExeTracer
eventq_index=0

[system.cpu0.workload]
type=LiveProcess
cmd=/home/tunji/sc-dnn/code/SparseCompute/M5SparseCompute --kernel 1 --samples 4 --threads 4 --forwardsparsity 24 --activationcachelinesparsity 8 --backwardsparsity 84 --signalcachelinesparsity 83 --weightupdatesparsity 89 --deltacachelinesparsity 67 --model CIFAR10 --workers 1 --pass BackwardProp --outputscale 4
cwd=/home/tunji/sc-dnn/code/SparseCompute/BackwardProp
drivers=
egid=100
env=
errout=cerr
euid=100
eventq_index=0
executable=/home/tunji/sc-dnn/code/SparseCompute/M5SparseCompute
gid=100
input=cin
kvmInSE=false
max_stack_size=67108864
output=cout
pid=100
ppid=99
simpoint=0
system=system
uid=100
useArchPT=false

[system.cpu1]
type=TimingSimpleCPU
children=apic_clk_domain dtb interrupts isa itb tracer
branchPred=Null
checker=Null
clk_domain=system.cpu_clk_domain
cpu_id=1
do_checkpoint_insts=true
do_quiesce=true
do_statistics_insts=true
dtb=system.cpu1.dtb
eventq_index=0
function_trace=false
function_trace_start=0
interrupts=system.cpu1.interrupts
isa=system.cpu1.isa
itb=system.cpu1.itb
max_insts_all_threads=0
max_insts_any_thread=0
max_loads_all_threads=0
max_loads_any_thread=0
numThreads=1
profile=0
progress_interval=0
simpoint_start_insts=
socket_id=0
switched_out=false
system=system
tracer=system.cpu1.tracer
workload=system.cpu0.workload
dcache_port=system.ruby.l0_cntrl1.sequencer.slave[1]
icache_port=system.ruby.l0_cntrl1.sequencer.slave[0]

[system.cpu1.apic_clk_domain]
type=DerivedClockDomain
clk_divider=16
clk_domain=system.cpu_clk_domain
eventq_index=0

[system.cpu1.dtb]
type=X86TLB
children=walker
eventq_index=0
size=64
walker=system.cpu1.dtb.walker

[system.cpu1.dtb.walker]
type=X86PagetableWalker
clk_domain=system.cpu_clk_domain
eventq_index=0
num_squash_per_cycle=4
system=system
port=system.ruby.l0_cntrl1.sequencer.slave[4]

[system.cpu1.interrupts]
type=X86LocalApic
clk_domain=system.cpu1.apic_clk_domain
eventq_index=0
int_latency=1000
pio_addr=2305843009213693952
pio_latency=100000
system=system
int_master=system.ruby.l0_cntrl1.sequencer.slave[2]
int_slave=system.ruby.l0_cntrl1.sequencer.master[1]
pio=system.ruby.l0_cntrl1.sequencer.master[0]

[system.cpu1.isa]
type=X86ISA
eventq_index=0

[system.cpu1.itb]
type=X86TLB
children=walker
eventq_index=0
size=64
walker=system.cpu1.itb.walker

[system.cpu1.itb.walker]
type=X86PagetableWalker
clk_domain=system.cpu_clk_domain
eventq_index=0
num_squash_per_cycle=4
system=system
port=system.ruby.l0_cntrl1.sequencer.slave[3]

[system.cpu1.tracer]
type=ExeTracer
eventq_index=0

[system.cpu2]
type=TimingSimpleCPU
children=apic_clk_domain dtb interrupts isa itb tracer
branchPred=Null
checker=Null
clk_domain=system.cpu_clk_domain
cpu_id=2
do_checkpoint_insts=true
do_quiesce=true
do_statistics_insts=true
dtb=system.cpu2.dtb
eventq_index=0
function_trace=false
function_trace_start=0
interrupts=system.cpu2.interrupts
isa=system.cpu2.isa
itb=system.cpu2.itb
max_insts_all_threads=0
max_insts_any_thread=0
max_loads_all_threads=0
max_loads_any_thread=0
numThreads=1
profile=0
progress_interval=0
simpoint_start_insts=
socket_id=0
switched_out=false
system=system
tracer=system.cpu2.tracer
workload=system.cpu0.workload
dcache_port=system.ruby.l0_cntrl2.sequencer.slave[1]
icache_port=system.ruby.l0_cntrl2.sequencer.slave[0]

[system.cpu2.apic_clk_domain]
type=DerivedClockDomain
clk_divider=16
clk_domain=system.cpu_clk_domain
eventq_index=0

[system.cpu2.dtb]
type=X86TLB
children=walker
eventq_index=0
size=64
walker=system.cpu2.dtb.walker

[system.cpu2.dtb.walker]
type=X86PagetableWalker
clk_domain=system.cpu_clk_domain
eventq_index=0
num_squash_per_cycle=4
system=system
port=system.ruby.l0_cntrl2.sequencer.slave[4]

[system.cpu2.interrupts]
type=X86LocalApic
clk_domain=system.cpu2.apic_clk_domain
eventq_index=0
int_latency=1000
pio_addr=2305843009213693952
pio_latency=100000
system=system
int_master=system.ruby.l0_cntrl2.sequencer.slave[2]
int_slave=system.ruby.l0_cntrl2.sequencer.master[1]
pio=system.ruby.l0_cntrl2.sequencer.master[0]

[system.cpu2.isa]
type=X86ISA
eventq_index=0

[system.cpu2.itb]
type=X86TLB
children=walker
eventq_index=0
size=64
walker=system.cpu2.itb.walker

[system.cpu2.itb.walker]
type=X86PagetableWalker
clk_domain=system.cpu_clk_domain
eventq_index=0
num_squash_per_cycle=4
system=system
port=system.ruby.l0_cntrl2.sequencer.slave[3]

[system.cpu2.tracer]
type=ExeTracer
eventq_index=0

[system.cpu3]
type=TimingSimpleCPU
children=apic_clk_domain dtb interrupts isa itb tracer
branchPred=Null
checker=Null
clk_domain=system.cpu_clk_domain
cpu_id=3
do_checkpoint_insts=true
do_quiesce=true
do_statistics_insts=true
dtb=system.cpu3.dtb
eventq_index=0
function_trace=false
function_trace_start=0
interrupts=system.cpu3.interrupts
isa=system.cpu3.isa
itb=system.cpu3.itb
max_insts_all_threads=0
max_insts_any_thread=0
max_loads_all_threads=0
max_loads_any_thread=0
numThreads=1
profile=0
progress_interval=0
simpoint_start_insts=
socket_id=0
switched_out=false
system=system
tracer=system.cpu3.tracer
workload=system.cpu0.workload
dcache_port=system.ruby.l0_cntrl3.sequencer.slave[1]
icache_port=system.ruby.l0_cntrl3.sequencer.slave[0]

[system.cpu3.apic_clk_domain]
type=DerivedClockDomain
clk_divider=16
clk_domain=system.cpu_clk_domain
eventq_index=0

[system.cpu3.dtb]
type=X86TLB
children=walker
eventq_index=0
size=64
walker=system.cpu3.dtb.walker

[system.cpu3.dtb.walker]
type=X86PagetableWalker
clk_domain=system.cpu_clk_domain
eventq_index=0
num_squash_per_cycle=4
system=system
port=system.ruby.l0_cntrl3.sequencer.slave[4]

[system.cpu3.interrupts]
type=X86LocalApic
clk_domain=system.cpu3.apic_clk_domain
eventq_index=0
int_latency=1000
pio_addr=2305843009213693952
pio_latency=100000
system=system
int_master=system.ruby.l0_cntrl3.sequencer.slave[2]
int_slave=system.ruby.l0_cntrl3.sequencer.master[1]
pio=system.ruby.l0_cntrl3.sequencer.master[0]

[system.cpu3.isa]
type=X86ISA
eventq_index=0

[system.cpu3.itb]
type=X86TLB
children=walker
eventq_index=0
size=64
walker=system.cpu3.itb.walker

[system.cpu3.itb.walker]
type=X86PagetableWalker
clk_domain=system.cpu_clk_domain
eventq_index=0
num_squash_per_cycle=4
system=system
port=system.ruby.l0_cntrl3.sequencer.slave[3]

[system.cpu3.tracer]
type=ExeTracer
eventq_index=0

[system.cpu4]
type=TimingSimpleCPU
children=apic_clk_domain dtb interrupts isa itb tracer
branchPred=Null
checker=Null
clk_domain=system.cpu_clk_domain
cpu_id=4
do_checkpoint_insts=true
do_quiesce=true
do_statistics_insts=true
dtb=system.cpu4.dtb
eventq_index=0
function_trace=false
function_trace_start=0
interrupts=system.cpu4.interrupts
isa=system.cpu4.isa
itb=system.cpu4.itb
max_insts_all_threads=0
max_insts_any_thread=0
max_loads_all_threads=0
max_loads_any_thread=0
numThreads=1
profile=0
progress_interval=0
simpoint_start_insts=
socket_id=0
switched_out=false
system=system
tracer=system.cpu4.tracer
workload=system.cpu0.workload
dcache_port=system.ruby.l0_cntrl4.sequencer.slave[1]
icache_port=system.ruby.l0_cntrl4.sequencer.slave[0]

[system.cpu4.apic_clk_domain]
type=DerivedClockDomain
clk_divider=16
clk_domain=system.cpu_clk_domain
eventq_index=0

[system.cpu4.dtb]
type=X86TLB
children=walker
eventq_index=0
size=64
walker=system.cpu4.dtb.walker

[system.cpu4.dtb.walker]
type=X86PagetableWalker
clk_domain=system.cpu_clk_domain
eventq_index=0
num_squash_per_cycle=4
system=system
port=system.ruby.l0_cntrl4.sequencer.slave[4]

[system.cpu4.interrupts]
type=X86LocalApic
clk_domain=system.cpu4.apic_clk_domain
eventq_index=0
int_latency=1000
pio_addr=2305843009213693952
pio_latency=100000
system=system
int_master=system.ruby.l0_cntrl4.sequencer.slave[2]
int_slave=system.ruby.l0_cntrl4.sequencer.master[1]
pio=system.ruby.l0_cntrl4.sequencer.master[0]

[system.cpu4.isa]
type=X86ISA
eventq_index=0

[system.cpu4.itb]
type=X86TLB
children=walker
eventq_index=0
size=64
walker=system.cpu4.itb.walker

[system.cpu4.itb.walker]
type=X86PagetableWalker
clk_domain=system.cpu_clk_domain
eventq_index=0
num_squash_per_cycle=4
system=system
port=system.ruby.l0_cntrl4.sequencer.slave[3]

[system.cpu4.tracer]
type=ExeTracer
eventq_index=0

[system.cpu_clk_domain]
type=SrcClockDomain
clock=500
domain_id=-1
eventq_index=0
init_perf_level=0
voltage_domain=system.cpu_voltage_domain

[system.cpu_voltage_domain]
type=VoltageDomain
eventq_index=0
voltage=1.000000

[system.dvfs_handler]
type=DVFSHandler
domains=
enable=false
eventq_index=0
sys_clk_domain=system.clk_domain
transition_latency=100000000

[system.mem_ctrls]
type=DRAMCtrl
IDD0=0.075000
IDD02=0.000000
IDD2N=0.050000
IDD2N2=0.000000
IDD2P0=0.000000
IDD2P02=0.000000
IDD2P1=0.000000
IDD2P12=0.000000
IDD3N=0.057000
IDD3N2=0.000000
IDD3P0=0.000000
IDD3P02=0.000000
IDD3P1=0.000000
IDD3P12=0.000000
IDD4R=0.187000
IDD4R2=0.000000
IDD4W=0.165000
IDD4W2=0.000000
IDD5=0.220000
IDD52=0.000000
IDD6=0.000000
IDD62=0.000000
VDD=1.500000
VDD2=0.000000
activation_limit=4
addr_mapping=RoRaBaChCo
bank_groups_per_rank=0
banks_per_rank=8
burst_length=8
channels=1
clk_domain=system.clk_domain
conf_table_reported=true
device_bus_width=8
device_rowbuffer_size=1024
device_size=536870912
devices_per_rank=8
dll=true
eventq_index=0
in_addr_map=true
max_accesses_per_row=16
mem_sched_policy=frfcfs
min_writes_per_switch=16
null=false
page_policy=open_adaptive
range=0:536870911
ranks_per_channel=2
read_buffer_size=32
static_backend_latency=10000
static_frontend_latency=10000
tBURST=5000
tCCD_L=0
tCK=1250
tCL=13750
tCS=2500
tRAS=35000
tRCD=13750
tREFI=7800000
tRFC=260000
tRP=13750
tRRD=6000
tRRD_L=0
tRTP=7500
tRTW=2500
tWR=15000
tWTR=7500
tXAW=30000
tXP=0
tXPDLL=0
tXS=0
tXSDLL=0
write_buffer_size=64
write_high_thresh_perc=85
write_low_thresh_perc=50
port=system.ruby.dir_cntrl0.memory

[system.ruby]
type=RubySystem
children=clk_domain dir_cntrl0 l0_cntrl0 l0_cntrl1 l0_cntrl2 l0_cntrl3 l0_cntrl4 l1_cntrl0 l1_cntrl1 l1_cntrl2 l1_cntrl3 l1_cntrl4 l2_cntrl0 memctrl_clk_domain network
all_instructions=false
block_size_bytes=64
clk_domain=system.ruby.clk_domain
eventq_index=0
hot_lines=false
memory_size_bits=48
num_of_sequencers=5
phys_mem=Null
random_seed=1234
randomization=false

[system.ruby.clk_domain]
type=SrcClockDomain
clock=500
domain_id=-1
eventq_index=0
init_perf_level=0
voltage_domain=system.voltage_domain

[system.ruby.dir_cntrl0]
type=Directory_Controller
children=directory
buffer_size=0
clk_domain=system.ruby.clk_domain
cluster_id=0
directory=system.ruby.dir_cntrl0.directory
directory_latency=6
eventq_index=0
number_of_TBEs=256
recycle_latency=10
ruby_system=system.ruby
system=system
to_mem_ctrl_latency=1
transitions_per_cycle=4
version=0
memory=system.mem_ctrls.port
requestToDir=system.ruby.network.master[13]
responseFromDir=system.ruby.network.slave[18]
responseToDir=system.ruby.network.master[14]

[system.ruby.dir_cntrl0.directory]
type=RubyDirectoryMemory
eventq_index=0
numa_high_bit=5
size=536870912
version=0

[system.ruby.l0_cntrl0]
type=L0Cache_Controller
children=Dcache Icache Zcache sequencer
Dcache=system.ruby.l0_cntrl0.Dcache
Icache=system.ruby.l0_cntrl0.Icache
Zcache=system.ruby.l0_cntrl0.Zcache
buffer_size=0
clk_domain=system.cpu_clk_domain
cluster_id=0
eventq_index=0
number_of_TBEs=256
recycle_latency=10
request_latency=2
response_latency=2
ruby_system=system.ruby
send_evictions=true
sequencer=system.ruby.l0_cntrl0.sequencer
system=system
transitions_per_cycle=32
version=0
bufferFromL1=system.ruby.l1_cntrl0.bufferToL0
bufferToL1=system.ruby.l1_cntrl0.bufferFromL0

[system.ruby.l0_cntrl0.Dcache]
type=RubyCache
assoc=8
dataAccessLatency=1
dataArrayBanks=1
eventq_index=0
is_icache=false
latency=1
replacement_policy=LRU
resourceStalls=false
size=32768
start_index_bit=6
tagAccessLatency=1
tagArrayBanks=1

[system.ruby.l0_cntrl0.Icache]
type=RubyCache
assoc=8
dataAccessLatency=1
dataArrayBanks=1
eventq_index=0
is_icache=true
latency=1
replacement_policy=LRU
resourceStalls=false
size=32768
start_index_bit=6
tagAccessLatency=1
tagArrayBanks=1

[system.ruby.l0_cntrl0.Zcache]
type=RubyCache
assoc=8
dataAccessLatency=0
dataArrayBanks=1
eventq_index=0
is_icache=false
latency=1
replacement_policy=LRU
resourceStalls=false
size=32768
start_index_bit=6
tagAccessLatency=1
tagArrayBanks=1

[system.ruby.l0_cntrl0.sequencer]
type=RubySequencer
access_backing_store=false
clk_domain=system.cpu_clk_domain
dcache=system.ruby.l0_cntrl0.Dcache
deadlock_threshold=500000
eventq_index=0
icache=system.ruby.l0_cntrl0.Icache
max_outstanding_requests=16
ruby_system=system.ruby
support_data_reqs=true
support_inst_reqs=true
system=system
using_network_tester=false
using_ruby_tester=false
version=0
zcache=system.ruby.l0_cntrl0.Zcache
master=system.cpu0.interrupts.pio system.cpu0.interrupts.int_slave
slave=system.cpu0.icache_port system.cpu0.dcache_port system.cpu0.interrupts.int_master system.cpu0.itb.walker.port system.cpu0.dtb.walker.port

[system.ruby.l0_cntrl1]
type=L0Cache_Controller
children=Dcache Icache Zcache sequencer
Dcache=system.ruby.l0_cntrl1.Dcache
Icache=system.ruby.l0_cntrl1.Icache
Zcache=system.ruby.l0_cntrl1.Zcache
buffer_size=0
clk_domain=system.cpu_clk_domain
cluster_id=0
eventq_index=0
number_of_TBEs=256
recycle_latency=10
request_latency=2
response_latency=2
ruby_system=system.ruby
send_evictions=true
sequencer=system.ruby.l0_cntrl1.sequencer
system=system
transitions_per_cycle=32
version=1
bufferFromL1=system.ruby.l1_cntrl1.bufferToL0
bufferToL1=system.ruby.l1_cntrl1.bufferFromL0

[system.ruby.l0_cntrl1.Dcache]
type=RubyCache
assoc=8
dataAccessLatency=1
dataArrayBanks=1
eventq_index=0
is_icache=false
latency=1
replacement_policy=LRU
resourceStalls=false
size=32768
start_index_bit=6
tagAccessLatency=1
tagArrayBanks=1

[system.ruby.l0_cntrl1.Icache]
type=RubyCache
assoc=8
dataAccessLatency=1
dataArrayBanks=1
eventq_index=0
is_icache=true
latency=1
replacement_policy=LRU
resourceStalls=false
size=32768
start_index_bit=6
tagAccessLatency=1
tagArrayBanks=1

[system.ruby.l0_cntrl1.Zcache]
type=RubyCache
assoc=8
dataAccessLatency=0
dataArrayBanks=1
eventq_index=0
is_icache=false
latency=1
replacement_policy=LRU
resourceStalls=false
size=32768
start_index_bit=6
tagAccessLatency=1
tagArrayBanks=1

[system.ruby.l0_cntrl1.sequencer]
type=RubySequencer
access_backing_store=false
clk_domain=system.cpu_clk_domain
dcache=system.ruby.l0_cntrl1.Dcache
deadlock_threshold=500000
eventq_index=0
icache=system.ruby.l0_cntrl1.Icache
max_outstanding_requests=16
ruby_system=system.ruby
support_data_reqs=true
support_inst_reqs=true
system=system
using_network_tester=false
using_ruby_tester=false
version=0
zcache=system.ruby.l0_cntrl1.Zcache
master=system.cpu1.interrupts.pio system.cpu1.interrupts.int_slave
slave=system.cpu1.icache_port system.cpu1.dcache_port system.cpu1.interrupts.int_master system.cpu1.itb.walker.port system.cpu1.dtb.walker.port

[system.ruby.l0_cntrl2]
type=L0Cache_Controller
children=Dcache Icache Zcache sequencer
Dcache=system.ruby.l0_cntrl2.Dcache
Icache=system.ruby.l0_cntrl2.Icache
Zcache=system.ruby.l0_cntrl2.Zcache
buffer_size=0
clk_domain=system.cpu_clk_domain
cluster_id=0
eventq_index=0
number_of_TBEs=256
recycle_latency=10
request_latency=2
response_latency=2
ruby_system=system.ruby
send_evictions=true
sequencer=system.ruby.l0_cntrl2.sequencer
system=system
transitions_per_cycle=32
version=2
bufferFromL1=system.ruby.l1_cntrl2.bufferToL0
bufferToL1=system.ruby.l1_cntrl2.bufferFromL0

[system.ruby.l0_cntrl2.Dcache]
type=RubyCache
assoc=8
dataAccessLatency=1
dataArrayBanks=1
eventq_index=0
is_icache=false
latency=1
replacement_policy=LRU
resourceStalls=false
size=32768
start_index_bit=6
tagAccessLatency=1
tagArrayBanks=1

[system.ruby.l0_cntrl2.Icache]
type=RubyCache
assoc=8
dataAccessLatency=1
dataArrayBanks=1
eventq_index=0
is_icache=true
latency=1
replacement_policy=LRU
resourceStalls=false
size=32768
start_index_bit=6
tagAccessLatency=1
tagArrayBanks=1

[system.ruby.l0_cntrl2.Zcache]
type=RubyCache
assoc=8
dataAccessLatency=0
dataArrayBanks=1
eventq_index=0
is_icache=false
latency=1
replacement_policy=LRU
resourceStalls=false
size=32768
start_index_bit=6
tagAccessLatency=1
tagArrayBanks=1

[system.ruby.l0_cntrl2.sequencer]
type=RubySequencer
access_backing_store=false
clk_domain=system.cpu_clk_domain
dcache=system.ruby.l0_cntrl2.Dcache
deadlock_threshold=500000
eventq_index=0
icache=system.ruby.l0_cntrl2.Icache
max_outstanding_requests=16
ruby_system=system.ruby
support_data_reqs=true
support_inst_reqs=true
system=system
using_network_tester=false
using_ruby_tester=false
version=0
zcache=system.ruby.l0_cntrl2.Zcache
master=system.cpu2.interrupts.pio system.cpu2.interrupts.int_slave
slave=system.cpu2.icache_port system.cpu2.dcache_port system.cpu2.interrupts.int_master system.cpu2.itb.walker.port system.cpu2.dtb.walker.port

[system.ruby.l0_cntrl3]
type=L0Cache_Controller
children=Dcache Icache Zcache sequencer
Dcache=system.ruby.l0_cntrl3.Dcache
Icache=system.ruby.l0_cntrl3.Icache
Zcache=system.ruby.l0_cntrl3.Zcache
buffer_size=0
clk_domain=system.cpu_clk_domain
cluster_id=0
eventq_index=0
number_of_TBEs=256
recycle_latency=10
request_latency=2
response_latency=2
ruby_system=system.ruby
send_evictions=true
sequencer=system.ruby.l0_cntrl3.sequencer
system=system
transitions_per_cycle=32
version=3
bufferFromL1=system.ruby.l1_cntrl3.bufferToL0
bufferToL1=system.ruby.l1_cntrl3.bufferFromL0

[system.ruby.l0_cntrl3.Dcache]
type=RubyCache
assoc=8
dataAccessLatency=1
dataArrayBanks=1
eventq_index=0
is_icache=false
latency=1
replacement_policy=LRU
resourceStalls=false
size=32768
start_index_bit=6
tagAccessLatency=1
tagArrayBanks=1

[system.ruby.l0_cntrl3.Icache]
type=RubyCache
assoc=8
dataAccessLatency=1
dataArrayBanks=1
eventq_index=0
is_icache=true
latency=1
replacement_policy=LRU
resourceStalls=false
size=32768
start_index_bit=6
tagAccessLatency=1
tagArrayBanks=1

[system.ruby.l0_cntrl3.Zcache]
type=RubyCache
assoc=8
dataAccessLatency=0
dataArrayBanks=1
eventq_index=0
is_icache=false
latency=1
replacement_policy=LRU
resourceStalls=false
size=32768
start_index_bit=6
tagAccessLatency=1
tagArrayBanks=1

[system.ruby.l0_cntrl3.sequencer]
type=RubySequencer
access_backing_store=false
clk_domain=system.cpu_clk_domain
dcache=system.ruby.l0_cntrl3.Dcache
deadlock_threshold=500000
eventq_index=0
icache=system.ruby.l0_cntrl3.Icache
max_outstanding_requests=16
ruby_system=system.ruby
support_data_reqs=true
support_inst_reqs=true
system=system
using_network_tester=false
using_ruby_tester=false
version=0
zcache=system.ruby.l0_cntrl3.Zcache
master=system.cpu3.interrupts.pio system.cpu3.interrupts.int_slave
slave=system.cpu3.icache_port system.cpu3.dcache_port system.cpu3.interrupts.int_master system.cpu3.itb.walker.port system.cpu3.dtb.walker.port

[system.ruby.l0_cntrl4]
type=L0Cache_Controller
children=Dcache Icache Zcache sequencer
Dcache=system.ruby.l0_cntrl4.Dcache
Icache=system.ruby.l0_cntrl4.Icache
Zcache=system.ruby.l0_cntrl4.Zcache
buffer_size=0
clk_domain=system.cpu_clk_domain
cluster_id=0
eventq_index=0
number_of_TBEs=256
recycle_latency=10
request_latency=2
response_latency=2
ruby_system=system.ruby
send_evictions=true
sequencer=system.ruby.l0_cntrl4.sequencer
system=system
transitions_per_cycle=32
version=4
bufferFromL1=system.ruby.l1_cntrl4.bufferToL0
bufferToL1=system.ruby.l1_cntrl4.bufferFromL0

[system.ruby.l0_cntrl4.Dcache]
type=RubyCache
assoc=8
dataAccessLatency=1
dataArrayBanks=1
eventq_index=0
is_icache=false
latency=1
replacement_policy=LRU
resourceStalls=false
size=32768
start_index_bit=6
tagAccessLatency=1
tagArrayBanks=1

[system.ruby.l0_cntrl4.Icache]
type=RubyCache
assoc=8
dataAccessLatency=1
dataArrayBanks=1
eventq_index=0
is_icache=true
latency=1
replacement_policy=LRU
resourceStalls=false
size=32768
start_index_bit=6
tagAccessLatency=1
tagArrayBanks=1

[system.ruby.l0_cntrl4.Zcache]
type=RubyCache
assoc=8
dataAccessLatency=0
dataArrayBanks=1
eventq_index=0
is_icache=false
latency=1
replacement_policy=LRU
resourceStalls=false
size=32768
start_index_bit=6
tagAccessLatency=1
tagArrayBanks=1

[system.ruby.l0_cntrl4.sequencer]
type=RubySequencer
access_backing_store=false
clk_domain=system.cpu_clk_domain
dcache=system.ruby.l0_cntrl4.Dcache
deadlock_threshold=500000
eventq_index=0
icache=system.ruby.l0_cntrl4.Icache
max_outstanding_requests=16
ruby_system=system.ruby
support_data_reqs=true
support_inst_reqs=true
system=system
using_network_tester=false
using_ruby_tester=false
version=0
zcache=system.ruby.l0_cntrl4.Zcache
master=system.cpu4.interrupts.pio system.cpu4.interrupts.int_slave
slave=system.cpu4.icache_port system.cpu4.dcache_port system.cpu4.interrupts.int_master system.cpu4.itb.walker.port system.cpu4.dtb.walker.port

[system.ruby.l1_cntrl0]
type=L1Cache_Controller
children=cache zcache
buffer_size=0
cache=system.ruby.l1_cntrl0.cache
clk_domain=system.ruby.clk_domain
cluster_id=0
eventq_index=0
l1_request_latency=2
l1_response_latency=2
l2_select_num_bits=0
number_of_TBEs=256
recycle_latency=10
ruby_system=system.ruby
system=system
to_l2_latency=1
transitions_per_cycle=32
version=0
zcache=system.ruby.l1_cntrl0.zcache
bufferFromL0=system.ruby.l0_cntrl0.bufferToL1
bufferToL0=system.ruby.l0_cntrl0.bufferFromL1
requestFromL2=system.ruby.network.master[0]
requestToL2=system.ruby.network.slave[0]
responseFromL2=system.ruby.network.master[1]
responseToL2=system.ruby.network.slave[1]
unblockToL2=system.ruby.network.slave[2]

[system.ruby.l1_cntrl0.cache]
type=RubyCache
assoc=8
dataAccessLatency=6
dataArrayBanks=1
eventq_index=0
is_icache=false
latency=2
replacement_policy=PSEUDO_LRU
resourceStalls=false
size=262144
start_index_bit=6
tagAccessLatency=1
tagArrayBanks=1

[system.ruby.l1_cntrl0.zcache]
type=RubyCache
assoc=8
dataAccessLatency=0
dataArrayBanks=1
eventq_index=0
is_icache=false
latency=2
replacement_policy=PSEUDO_LRU
resourceStalls=false
size=262144
start_index_bit=6
tagAccessLatency=1
tagArrayBanks=1

[system.ruby.l1_cntrl1]
type=L1Cache_Controller
children=cache zcache
buffer_size=0
cache=system.ruby.l1_cntrl1.cache
clk_domain=system.ruby.clk_domain
cluster_id=0
eventq_index=0
l1_request_latency=2
l1_response_latency=2
l2_select_num_bits=0
number_of_TBEs=256
recycle_latency=10
ruby_system=system.ruby
system=system
to_l2_latency=1
transitions_per_cycle=32
version=1
zcache=system.ruby.l1_cntrl1.zcache
bufferFromL0=system.ruby.l0_cntrl1.bufferToL1
bufferToL0=system.ruby.l0_cntrl1.bufferFromL1
requestFromL2=system.ruby.network.master[2]
requestToL2=system.ruby.network.slave[3]
responseFromL2=system.ruby.network.master[3]
responseToL2=system.ruby.network.slave[4]
unblockToL2=system.ruby.network.slave[5]

[system.ruby.l1_cntrl1.cache]
type=RubyCache
assoc=8
dataAccessLatency=6
dataArrayBanks=1
eventq_index=0
is_icache=false
latency=2
replacement_policy=PSEUDO_LRU
resourceStalls=false
size=262144
start_index_bit=6
tagAccessLatency=1
tagArrayBanks=1

[system.ruby.l1_cntrl1.zcache]
type=RubyCache
assoc=8
dataAccessLatency=0
dataArrayBanks=1
eventq_index=0
is_icache=false
latency=2
replacement_policy=PSEUDO_LRU
resourceStalls=false
size=262144
start_index_bit=6
tagAccessLatency=1
tagArrayBanks=1

[system.ruby.l1_cntrl2]
type=L1Cache_Controller
children=cache zcache
buffer_size=0
cache=system.ruby.l1_cntrl2.cache
clk_domain=system.ruby.clk_domain
cluster_id=0
eventq_index=0
l1_request_latency=2
l1_response_latency=2
l2_select_num_bits=0
number_of_TBEs=256
recycle_latency=10
ruby_system=system.ruby
system=system
to_l2_latency=1
transitions_per_cycle=32
version=2
zcache=system.ruby.l1_cntrl2.zcache
bufferFromL0=system.ruby.l0_cntrl2.bufferToL1
bufferToL0=system.ruby.l0_cntrl2.bufferFromL1
requestFromL2=system.ruby.network.master[4]
requestToL2=system.ruby.network.slave[6]
responseFromL2=system.ruby.network.master[5]
responseToL2=system.ruby.network.slave[7]
unblockToL2=system.ruby.network.slave[8]

[system.ruby.l1_cntrl2.cache]
type=RubyCache
assoc=8
dataAccessLatency=6
dataArrayBanks=1
eventq_index=0
is_icache=false
latency=2
replacement_policy=PSEUDO_LRU
resourceStalls=false
size=262144
start_index_bit=6
tagAccessLatency=1
tagArrayBanks=1

[system.ruby.l1_cntrl2.zcache]
type=RubyCache
assoc=8
dataAccessLatency=0
dataArrayBanks=1
eventq_index=0
is_icache=false
latency=2
replacement_policy=PSEUDO_LRU
resourceStalls=false
size=262144
start_index_bit=6
tagAccessLatency=1
tagArrayBanks=1

[system.ruby.l1_cntrl3]
type=L1Cache_Controller
children=cache zcache
buffer_size=0
cache=system.ruby.l1_cntrl3.cache
clk_domain=system.ruby.clk_domain
cluster_id=0
eventq_index=0
l1_request_latency=2
l1_response_latency=2
l2_select_num_bits=0
number_of_TBEs=256
recycle_latency=10
ruby_system=system.ruby
system=system
to_l2_latency=1
transitions_per_cycle=32
version=3
zcache=system.ruby.l1_cntrl3.zcache
bufferFromL0=system.ruby.l0_cntrl3.bufferToL1
bufferToL0=system.ruby.l0_cntrl3.bufferFromL1
requestFromL2=system.ruby.network.master[6]
requestToL2=system.ruby.network.slave[9]
responseFromL2=system.ruby.network.master[7]
responseToL2=system.ruby.network.slave[10]
unblockToL2=system.ruby.network.slave[11]

[system.ruby.l1_cntrl3.cache]
type=RubyCache
assoc=8
dataAccessLatency=6
dataArrayBanks=1
eventq_index=0
is_icache=false
latency=2
replacement_policy=PSEUDO_LRU
resourceStalls=false
size=262144
start_index_bit=6
tagAccessLatency=1
tagArrayBanks=1

[system.ruby.l1_cntrl3.zcache]
type=RubyCache
assoc=8
dataAccessLatency=0
dataArrayBanks=1
eventq_index=0
is_icache=false
latency=2
replacement_policy=PSEUDO_LRU
resourceStalls=false
size=262144
start_index_bit=6
tagAccessLatency=1
tagArrayBanks=1

[system.ruby.l1_cntrl4]
type=L1Cache_Controller
children=cache zcache
buffer_size=0
cache=system.ruby.l1_cntrl4.cache
clk_domain=system.ruby.clk_domain
cluster_id=0
eventq_index=0
l1_request_latency=2
l1_response_latency=2
l2_select_num_bits=0
number_of_TBEs=256
recycle_latency=10
ruby_system=system.ruby
system=system
to_l2_latency=1
transitions_per_cycle=32
version=4
zcache=system.ruby.l1_cntrl4.zcache
bufferFromL0=system.ruby.l0_cntrl4.bufferToL1
bufferToL0=system.ruby.l0_cntrl4.bufferFromL1
requestFromL2=system.ruby.network.master[8]
requestToL2=system.ruby.network.slave[12]
responseFromL2=system.ruby.network.master[9]
responseToL2=system.ruby.network.slave[13]
unblockToL2=system.ruby.network.slave[14]

[system.ruby.l1_cntrl4.cache]
type=RubyCache
assoc=8
dataAccessLatency=6
dataArrayBanks=1
eventq_index=0
is_icache=false
latency=2
replacement_policy=PSEUDO_LRU
resourceStalls=false
size=262144
start_index_bit=6
tagAccessLatency=1
tagArrayBanks=1

[system.ruby.l1_cntrl4.zcache]
type=RubyCache
assoc=8
dataAccessLatency=0
dataArrayBanks=1
eventq_index=0
is_icache=false
latency=2
replacement_policy=PSEUDO_LRU
resourceStalls=false
size=262144
start_index_bit=6
tagAccessLatency=1
tagArrayBanks=1

[system.ruby.l2_cntrl0]
type=L2Cache_Controller
children=L2cache ZL2cache
L2cache=system.ruby.l2_cntrl0.L2cache
ZL2cache=system.ruby.l2_cntrl0.ZL2cache
buffer_size=0
clk_domain=system.ruby.clk_domain
cluster_id=0
eventq_index=0
l2_request_latency=2
l2_response_latency=2
number_of_TBEs=256
recycle_latency=10
ruby_system=system.ruby
system=system
to_l1_latency=1
transitions_per_cycle=4
version=0
DirRequestFromL2Cache=system.ruby.network.slave[15]
L1RequestFromL2Cache=system.ruby.network.slave[16]
L1RequestToL2Cache=system.ruby.network.master[11]
responseFromL2Cache=system.ruby.network.slave[17]